Circuit: * C:\Users\Zach Stamler\Documents\Speed Demon\EagleCAD\on_button_timing.asc

Direct Newton iteration failed to find .op point.  (Use ".option noopiter" to skip.)
Starting Gmin stepping
Gmin = 10
Gmin = 1.07374
Gmin = 0.115292
Gmin = 0.0123794
Gmin = 0.00132923
Gmin = 0.000142725
Gmin = 1.5325e-005
Gmin = 1.6455e-006
Gmin = 1.76685e-007
Gmin = 1.89714e-008
Gmin = 2.03704e-009
Gmin = 2.18725e-010
Gmin = 2.34854e-011
Gmin = 2.52173e-012
Gmin = 2.70769e-013
Gmin = 0
Gmin stepping succeeded in finding the operating point.


Date: Sat Oct 21 11:00:35 2017
Total elapsed time: 0.266 seconds.

tnom = 27
temp = 27
method = modified trap
totiter = 3710
traniter = 3336
tranpoints = 1537
accept = 1451
rejected = 86
matrix size = 8
fillins = 0
solver = Normal
Matrix Compiler1: 336 bytes object code size  0.2/0.1/[0.0]
Matrix Compiler2: 596 bytes object code size  0.1/0.1/[0.1]


